84

C        -18.07674        0.49209      -36.01550
C        -15.05213        4.02666      -34.85144
C        -14.54533        1.93504      -33.58764
C        -15.70909        2.76193      -31.53805
C        -11.74472        3.38145      -26.68719
C        -11.45558       -0.56846      -29.99205
C        -13.96348       -2.14096      -31.93060
C        -17.80400        2.80427      -28.17433
C        -16.69880        1.00273      -35.62698
C        -16.94433        0.96703      -32.72699
C        -17.65323        2.01384      -33.57082
C        -13.92827        3.58989      -26.54421
C        -15.36655        3.22785      -26.91822
C        -15.96923        0.77718      -30.64065
C        -12.77691       -2.25189      -29.80365
C        -10.55817        0.72161      -26.69002
C        -10.67257       -0.62912      -27.34858
C        -16.08956        2.28990      -30.44389
C        -13.31394       -0.93966      -30.11350
C        -15.46356        2.79763      -34.43805
C        -15.56639        1.47766      -32.33847
C        -11.96511        2.42604      -25.52572
C        -16.84150        2.28700      -34.82656
C        -14.76125        0.47392      -31.52936
C        -13.46366        2.70376      -25.38601
C        -11.44756       -2.09432      -29.06192
C        -15.62741        3.61344      -28.37614
C        -11.74189        0.92862      -25.74398
C        -11.37196       -0.76329      -28.48691
C        -14.17400       -0.85925      -31.14110
C        -16.55894        2.58385      -29.01792
O        -12.93606        0.49065      -26.37527
H        -18.64816        0.29980      -35.13153
H        -17.97629       -0.41197      -36.57896
H        -18.57577        1.22899      -36.60951
H        -14.08213        4.38612      -34.57795
H        -15.69852        4.63388      -35.45008
H        -15.01788        1.72759      -32.65032
H        -14.34601        1.01582      -34.09774
H        -13.62572        2.45449      -33.41621
H        -16.28051        2.56964      -30.65408
H        -14.73909        3.12139      -31.26456
H        -16.20812        3.49883      -32.13206
H        -10.75407        3.29386      -27.08197
H        -12.45531        3.14211      -27.45052
H        -11.90710        4.38400      -26.35041
H        -11.96258        0.34935      -30.20527
H        -10.46809       -0.53416      -30.40266
H        -11.99492       -1.38342      -30.42776
H        -14.09401       -2.98357      -31.28416
H        -14.67520       -2.18961      -32.72809
H        -12.97303       -2.15196      -32.33531
H        -18.61618        2.24011      -28.58298
H        -17.61631        2.48369      -27.17089
H        -18.05598        3.84418      -28.17530
H        -16.19977        0.26583      -35.03297
H        -16.12739        1.19502      -36.51096
H        -17.51575        0.77474      -31.84302
H        -16.84388        0.06297      -33.29045
H        -17.75369        2.91790      -33.00737
H        -18.62323        1.65438      -33.84432
H        -13.13182        4.20317      -26.17752
H        -14.05688        3.87977      -27.56613
H        -15.74645        2.85264      -25.99097
H        -16.32105        2.91033      -27.28293
H        -16.33485        0.00902      -29.99169
H        -16.94073        0.58651      -31.04653
H        -12.87711       -3.30296      -29.63012
H        -13.50684       -2.29661      -30.58475
H         -9.60623        1.01479      -26.29918
H        -10.61619        1.43209      -27.48799
H        -10.15876       -1.33591      -26.73104
H        -10.84585       -1.29684      -28.16652
H        -15.74111        3.26839      -30.18693
H        -16.18842        2.17014      -31.50256
H        -12.75486       -0.80495      -29.21118
H        -13.64458        0.00338      -30.49592
H        -14.99497        1.66995      -33.22245
H        -11.17676        2.83199      -24.92688
H        -17.34053        3.02390      -35.42057
H        -13.73230        0.45883      -31.82250
H        -14.09569        2.86810      -24.53840
H        -11.88476        0.22004      -24.95505
H        -13.17728       -0.41558      -26.02806
